
 ******************************************
 *** Specfem3D MPI meshfem3D - f90 version ***
 ******************************************

 Reading parameters from ./DATA/Par_file

 Reading mesh parameters from file ./DATA/meshfem3D_files/Mesh_Par_file
   input parameters...
   doubling layers...
   visualization...
   CPML...
   domain materials...
     material            1  elastic
     material            2  elastic
     material            3  elastic
     material            4  elastic
     material            5  elastic
   domain regions...
     region            1  with material            5
       nex_xi  begin/end =            1         196
       nex_eta begin/end =            1         150
       nz      begin/end =            1          13
     region            2  with material            4
       nex_xi  begin/end =            1         196
       nex_eta begin/end =            1         150
       nz      begin/end =           14          16
     region            3  with material            3
       nex_xi  begin/end =            1         196
       nex_eta begin/end =            1         150
       nz      begin/end =           17          20
     region            4  with material            2
       nex_xi  begin/end =            1         196
       nex_eta begin/end =            1         150
       nz      begin/end =           21          25
     region            5  with material            1
       nex_xi  begin/end =            1         196
       nex_eta begin/end =            1         150
       nz      begin/end =           26          28

   reading Mesh_Par_file done successfully

   checking mesh setup...
   all okay


 Reading interface data from file ./DATA/meshfem3D_files/interfaces.dat
   maximum interface points x/y =            2           2
   interfaces done

 parameter setup:
   total number of elements =        41160
   total number of points   =       344223


 Creating global slice addressing

 Spatial distribution of slice numbers:
   16   17   18   19 
   12   13   14   15 
    8    9   10   11 
    4    5    6    7 
    0    1    2    3 
 This is process            0
 There are           20  MPI processes
 Processes are numbered from 0 to           19

 There are          196  elements along xi
 There are          150  elements along eta
 There are           28  elements along Z

 There are           13  spectral elements along Z in layer            1
 There are            3  spectral elements along Z in layer            2
 There are            4  spectral elements along Z in layer            3
 There are            5  spectral elements along Z in layer            4
 There are            3  spectral elements along Z in layer            5

 There are            4  slices along xi
 There are            5  slices along eta
 There is a total of           20  slices

 Shape functions defined by NGNOD =            8  control nodes
 Surface shape functions defined by NGNOD2D =            4  control nodes
 Beware! Curvature (i.e. HEX27 elements) is not handled by our internal mesher

 region selected:

 latitude min =   -70.000000000000000     
 latitude max =    60.000000000000000     

 longitude min =   -50.000000000000000     
 longitude max =    50.000000000000000     

 this is given directly as UTM

 UTM X min =   -50.000000000000000     
 UTM X max =    50.000000000000000     

 UTM Y min =   -70.000000000000000     
 UTM Y max =    60.000000000000000     

 UTM size of model along X is   0.10000000000000001       km
 UTM size of model along Y is   0.13000000000000000       km

 Bottom of the mesh is at a depth of    5.0000000000000003E-002  km


 suppressing UTM projection


 **************************
 Creating interfaces
 **************************

 Reading interface data from file ./DATA/meshfem3D_files/interfaces.dat

 number of interfaces:            5

 mesh:
   origin UTM minimum x/y        (m) =   -50.0000000      -70.0000000    
   origin UTM maximum x/y        (m) =    50.0000000       60.0000000    

 reading interface            1
   interface file   : interface1.dat

   number of points x/y =            2           2
   origin x/y     (m) =   -50.0000000      -70.0000000    
   spacing x/y    (m) =    130.000000       100.000000    

   dimension x-direction (m) =   -50.0000000     /   80.0000000    
   dimension y-direction (m) =   -70.0000000     /   30.0000000    

   total number of file points =            4  should be            4
   this point total is okay

   original elevation min/max             =   -21.0000000      -21.0000000    
   interpolated mesh elevation min/max    =   -21.0000000      -21.0000000    

   interpolated mesh UTM minimum x/y (m) =   -50.0000000      -70.0000000    
   interpolated mesh UTM maximum x/y (m) =    50.0000000       60.0000000    

 reading interface            2
   interface file   : interface2.dat

   number of points x/y =            2           2
   origin x/y     (m) =   -50.0000000      -70.0000000    
   spacing x/y    (m) =    130.000000       100.000000    

   dimension x-direction (m) =   -50.0000000     /   80.0000000    
   dimension y-direction (m) =   -70.0000000     /   30.0000000    

   total number of file points =            4  should be            4
   this point total is okay

   original elevation min/max             =   -13.0000000      -13.0000000    
   interpolated mesh elevation min/max    =   -13.0000000      -13.0000000    

   interpolated mesh UTM minimum x/y (m) =   -50.0000000      -70.0000000    
   interpolated mesh UTM maximum x/y (m) =    50.0000000       60.0000000    

 reading interface            3
   interface file   : interface3.dat

   number of points x/y =            2           2
   origin x/y     (m) =   -50.0000000      -70.0000000    
   spacing x/y    (m) =    130.000000       100.000000    

   dimension x-direction (m) =   -50.0000000     /   80.0000000    
   dimension y-direction (m) =   -70.0000000     /   30.0000000    

   total number of file points =            4  should be            4
   this point total is okay

   original elevation min/max             =   -7.00000000      -7.00000000    
   interpolated mesh elevation min/max    =   -7.00000000      -7.00000000    

   interpolated mesh UTM minimum x/y (m) =   -50.0000000      -70.0000000    
   interpolated mesh UTM maximum x/y (m) =    50.0000000       60.0000000    

 reading interface            4
   interface file   : interface4.dat

   number of points x/y =            2           2
   origin x/y     (m) =   -50.0000000      -70.0000000    
   spacing x/y    (m) =    130.000000       100.000000    

   dimension x-direction (m) =   -50.0000000     /   80.0000000    
   dimension y-direction (m) =   -70.0000000     /   30.0000000    

   total number of file points =            4  should be            4
   this point total is okay

   original elevation min/max             =   -2.00000000      -2.00000000    
   interpolated mesh elevation min/max    =   -2.00000000      -2.00000000    

   interpolated mesh UTM minimum x/y (m) =   -50.0000000      -70.0000000    
   interpolated mesh UTM maximum x/y (m) =    50.0000000       60.0000000    

 reading interface            5
   interface file   : interface5.dat

   number of points x/y =            2           2
   origin x/y     (m) =   -50.0000000      -70.0000000    
   spacing x/y    (m) =    130.000000       100.000000    

   dimension x-direction (m) =   -50.0000000     /   80.0000000    
   dimension y-direction (m) =   -70.0000000     /   30.0000000    

   total number of file points =            4  should be            4
   this point total is okay

   original elevation min/max             =    0.00000000       0.00000000    
   interpolated mesh elevation min/max    =    0.00000000       0.00000000    

   interpolated mesh UTM minimum x/y (m) =   -50.0000000      -70.0000000    
   interpolated mesh UTM maximum x/y (m) =    50.0000000       60.0000000    


 **************************
 Creating mesh in the model
 **************************

 creating mesh:
   NGLLX_M/NGLLY_M/NGLLZ_M =            3           3           3
   NGNOD/NGNOD2D           =            8           4
   NSPEC_AB                =        41160
   NGLOB_AB                =       344223

 allocating mesh arrays

 number of subregions =            5
   defining subregion            1
     has material            5
   defining subregion            2
     has material            4
   defining subregion            3
     has material            3
   defining subregion            4
     has material            2
   defining subregion            5
     has material            1

 number of mesh regions =            1
   creating mesh region            1  (regular mesh)

 mesh dimensions:
   Xmin and Xmax of the model =   -50.0000000       50.0000000    
   Ymin and Ymax of the model =   -70.0000000       60.0000000    
   Zmin and Zmax of the model =   -50.0000000       0.00000000    

 exact area =    13000.0000     (m^2)
            =    1.30000003E-02 (km^2)

   Max element size =    2.66666698     (m)
   Min element size =   0.510200500     (m)
   Max/min ratio =    5.22670412    


 creating indirect addressing for unstructured mesh


 File "./DATA/meshfem3D_files/no_cavity.dat" not found: assume no cavity

 no PML region


 saving mesh files

 **************************
 Checking mesh quality
 **************************

 start computing the minimum and maximum edge size
 done processing 

 ------------
 mesh quality parameter definitions:

 equiangle skewness: 0. perfect,  1. bad
 skewness max deviation angle: 0. perfect,  90. bad
 edge aspect ratio: 1. perfect,  above 1. gives stretching factor
 diagonal aspect ratio: 1. perfect,  above 1. gives stretching factor
 ------------

 minimum length of an edge in the whole mesh (m) =   0.51020408163263653     

 maximum length of an edge in the whole mesh (m) =    2.6666666666666714     

 ***
 *** max equiangle skewness =    2.6575301338450717E-014  in element          191  of slice            0
 ***

 max deviation angle from a right angle (90 degrees) is therefore =    2.3917771204605646E-012

 worst angle in the mesh is therefore    89.999999999997613     
 or    90.000000000002387       degrees

 max edge aspect ratio =    5.2266666666668451     

 max diagonal aspect ratio =    1.0000000000000167     

 ***
 *** Maximum suggested time step for simulation =    0.00001502
 ***
 *** Max CFL stability condition of the time scheme (must be below about 0.55 or so) =   0.47039999999999998     
 *** computed using the maximum P wave velocity =    2760.0000000000000     
 ***
 that value is below the upper CFL limit of   0.55000000000000004     
 therefore the run should be stable

 creating histogram of mesh quality

 histogram of skewness (0. good - 1. bad):

   0.00000000      -    5.00000007E-02      823200     100.000000      %
   5.00000007E-02  -   0.100000001               0     0.00000000      %
  0.100000001      -   0.150000006               0     0.00000000      %
  0.150000006      -   0.200000003               0     0.00000000      %
  0.200000003      -   0.250000000               0     0.00000000      %
  0.250000000      -   0.300000012               0     0.00000000      %
  0.300000012      -   0.349999994               0     0.00000000      %
  0.349999994      -   0.400000006               0     0.00000000      %
  0.400000006      -   0.449999988               0     0.00000000      %
  0.449999988      -   0.500000000               0     0.00000000      %
  0.500000000      -   0.550000012               0     0.00000000      %
  0.550000012      -   0.600000024               0     0.00000000      %
  0.600000024      -   0.649999976               0     0.00000000      %
  0.649999976      -   0.699999988               0     0.00000000      %
  0.699999988      -   0.750000000               0     0.00000000      %
  0.750000000      -   0.800000012               0     0.00000000      %
  0.800000012      -   0.850000024               0     0.00000000      %
  0.850000024      -   0.899999976               0     0.00000000      %
  0.899999976      -   0.949999988               0     0.00000000      %
  0.949999988      -    1.00000000               0     0.00000000      %


 mesh files:
   saving files: proc***_Database
   done mesh files


 Repartition of elements:
 -----------------------

 total number of elements in mesh slice 0:        41160
 total number of points in mesh slice 0:       344223

 total number of elements in entire mesh:       823200
 approximate total number of points in entire mesh (with duplicates on MPI edges):               6884460
 approximate total number of DOFs in entire mesh (with duplicates on MPI edges):              20653380

 using single precision for the calculations

 smallest and largest possible floating-point numbers are:    1.17549435E-38   3.40282347E+38


 Elapsed time for mesh generation and buffer creation in seconds =    1.1359227540000001     
 End of mesh generation

 done

